[TITLE]
Urban        drainage 1D/2D coupled model demo project April 2015

[OPTIONS]
FLOW_UNITS        CMS
INFILTRATION        CURVE_NUMBER
FLOW_ROUTING        DYNWAVE
LINK_OFFSETS        DEPTH
FORCE_MAIN_EQUATION        H-W
IGNORE_RAINFALL        NO
IGNORE_SNOWMELT        NO
IGNORE_GROUNDWATER        NO
IGNORE_ROUTING        NO
IGNORE_QUALITY        NO
SKIP_STEADY_STATE        NO
START_DATE        01/01/2001
START_TIME        00:00:00
END_DATE        01/01/2001
END_TIME        05:00:00
REPORT_START_DATE        01/01/2001
REPORT_START_TIME        00:00:00
SWEEP_START        01/01
SWEEP_END        12/31
DRY_DAYS        10
REPORT_STEP        00:15:00
WET_STEP        00:05:00
DRY_STEP        01:00:00
ROUTING_STEP        00:00:02
INERTIAL_DAMPING        NONE
NORMAL_FLOW_LIMITED        BOTH
MIN_SURFAREA        0.000000
MIN_SLOPE        0.000000
ALLOW_PONDING        YES

[REPORT]
INPUT        YES
CONTINUITY        YES
FLOWSTATS        YES
CONTROLS        YES
SUBCATCHMENTS        ALL
NODES        ALL
LINKS        ALL

[FILES]

[EVAPORATION]

[RAINGAGES]
41        VOLUME       0:05         1.0000       TIMESERIES         T5-5m

[TEMPERATURE]

[SUBCATCHMENTS]
r100a_2D        41		N100		0.129663		90.0000		26.5216		3.9660		48.8896
r101a_2D        41		N101		0.125028		90.0000		23.7876		4.0782		52.5601
r101b_2D        41		N101		0.175173		90.0000		29.8357		3.4981		58.7127
r102a_2D        41		N102		0.182694		90.0000		32.0927		4.3108		56.9270
r102b_2D        41		N102		0.167321		90.0000		28.9766		2.5460		57.7435
r104a_2D        41		N104		0.059246		80.0000		17.6181		2.8225		33.6279
r104b_2D        41		N104		0.128539		90.0000		25.2845		3.9785		50.8373
r105a_2D        41		N105		0.184893		90.0000		31.1105		3.4094		59.4312
r105b_2D        41		N105		0.022750		80.0000		10.5831		3.8553		21.4963
r106a_2D        41		N106		0.134563		90.0000		26.0181		2.2483		51.7190
r106b_2D        41		N106		0.145753		90.0000		26.6777		3.8027		54.6349
r107a_2D        41		N107		0.154083		90.0000		22.2124		4.2245		69.3681
r107b_2D        41		N107		0.228191		90.0000		34.5686		3.2754		66.0109
r108a_2D        41		N108		0.250491		90.0000		37.5892		3.9861		66.6391
r108b_2D        41		N108		0.208254		90.0000		34.4888		3.3663		60.3832
r109a_2D        41		N109		0.210688		90.0000		34.2254		3.7198		61.5589
r109b_2D        41		N109		0.217473		90.0000		35.3548		4.4852		61.5116
r110a_2D        41		N110		0.097584		90.0000		22.0971		4.0439		44.1612
r110b_2D        41		N110		0.331987		90.0000		44.1302		3.8368		75.2290
r111a_2D        41		N111		0.148639		75.0000		27.8208		2.5465		53.4272
r112a_2D        41		N112		0.117490		75.0000		23.2522		2.9287		50.5284
r113a_2D        41		N113		0.002146		90.0000		2.8164		2.3467		7.6191
r113b_2D        41		N113		0.010913		75.0000		6.8779		2.2323		15.8673
r114a_2D        41		N114		0.124629		75.0000		26.5933		3.5552		46.8648
r115a_2D        41		N115		0.059546		90.0000		15.5625		3.6705		38.2625
r116a_2D        41		N116		0.041368		90.0000		12.9313		3.2993		31.9907
r117a_2D        41		N117		0.194891		90.0000		31.8959		2.8618		61.1022
r118a_2D        41		N118		0.266823		90.0000		38.7843		4.5361		68.7967
r119a_2D        41		N119		0.215737		90.0000		33.9850		5.4525		63.4801
r120a_2D        41		N120		0.041025		90.0000		13.9306		3.5768		29.4497
r121a_2D        41		N121		0.073400		80.0000		19.8811		2.1805		36.9193
r122a_2D        41		N122		0.078442		80.0000		17.2553		3.3874		45.4597
r123a_2D        41		N123		0.008943		90.0000		6.7084		2.2726		13.3304
r124a_2D        41		N124		0.163317		90.0000		29.6309		3.6999		55.1171
r125a_2D        41		N125		0.105904		90.0000		22.4122		2.6246		47.2527
r126a_2D        41		N126		0.214400		90.0000		34.7094		5.0194		61.7701
r127a_2D        41		N127		0.213167		90.0000		34.1426		4.5568		62.4343
r128a_2D        41		N128		0.208979		90.0000		34.5623		4.1780		60.4644
r129a_2D        41		N129		0.210811		90.0000		34.7033		3.8359		60.7467
r130a_2D        41		N130		0.204357		90.0000		34.0803		3.6266		59.9632
r131a_2D        41		N131		0.223545		90.0000		36.0462		3.6277		62.0162
r99b_2D        41		N99		0.049370		90.0000		13.7362		3.7386		35.9419
r132a_2D        41		N132		0.144698		90.0000		26.5015		3.0791		54.5998
r233a_2D        41		N233		0.054564		90.0000		16.8222		3.3652		32.4357
r233b_2D        41		N233		0.080347		90.0000		18.9048		3.7564		42.5010
r29a_2D        41		N29		0.152217		75.0000		28.2955		2.5734		53.7955
r30a_2D        41		N30		0.184562		75.0000		31.6613		2.4581		58.2927
r31a_2D        41		N31		0.010443		90.0000		7.3042		3.7296		14.2969
r31b_2D        41		N31		0.016742		75.0000		9.7511		3.6492		17.1694
r32a_2D        41		N32		0.099990		90.0000		20.9949		2.5898		47.6260
r33a_2D        41		N33		0.138549		90.0000		25.8675		2.5827		53.5609
r34a_2D        41		N34		0.006814		80.0000		6.0939		2.1287		11.1814
r34b_2D        41		N34		0.015347		90.0000		9.0895		2.8581		16.8849
r35a_2D        41		N35		0.122170		90.0000		23.2833		3.2808		52.4709
r35b_2D        41		N35		0.016686		90.0000		9.6357		2.4144		17.3166
r35c_2D        41		N35		0.012885		90.0000		8.6288		4.1727		14.9327
r36a_2D        41		N36		0.010943		90.0000		7.9471		3.1261		13.7698
r36b_2D        41		N36		0.010981		90.0000		7.9360		2.6631		13.8372
r36c_2D        41		N36		0.098303		90.0000		21.0846		5.5535		46.6229
r37a_2D        41		N37		0.250165		90.0000		36.7494		4.6576		68.0733
r37b_2D        41		N37		0.012688		90.0000		8.4893		3.9377		14.9464
r37c_2D        41		N37		0.008653		90.0000		6.5608		3.5911		13.1895
r38a_2D        41		N38		0.167648		90.0000		29.0231		3.0043		57.7638
r38b_2D        41		N38		0.101218		90.0000		23.1640		3.7411		43.6962
r39a_2D        41		N39		0.030359		90.0000		12.1828		4.1351		24.9197
r39b_2D        41		N39		0.060571		90.0000		18.0692		5.2170		33.5215
r40a_2D        41		N40		0.027118		80.0000		12.3175		2.7905		22.0156
r40b_2D        41		N40		0.072584		90.0000		19.8978		3.4788		36.4786
r41a_2D        41		N41		0.126085		80.0000		27.2329		1.3920		46.2986
r41b_2D        41		N41		0.242097		90.0000		37.2567		4.5888		64.9808
r42a_2D        41		N42		0.027756		80.0000		9.9207		5.1263		27.9779
r42b_2D        41		N42		0.199370		90.0000		33.3622		4.8936		59.7592
r43a_2D        41		N43		0.052801		90.0000		15.4760		2.7312		34.1177
r44a_2D        41		N44		0.103187		90.0000		22.3835		2.1740		46.0996
r45a_2D        41		N45		0.012914		90.0000		8.6843		2.7477		14.8703
r45b_2D        41		N45		0.021430		90.0000		10.9520		3.8389		19.5669
r46a_2D        41		N46		0.050654		80.0000		15.9209		2.1583		31.8160
r47a_2D        41		N47		0.017653		90.0000		7.8123		2.5629		22.5970
r48a_2D        41		N48		0.103377		90.0000		23.2025		3.4884		44.5541
r49a_2D        41		N49		0.160822		90.0000		28.9088		2.7875		55.6308
r50a_2D        41		N50		0.077571		90.0000		19.1194		3.6720		40.5717
r51a_2D        41		N51		0.179053		90.0000		31.2397		2.9465		57.3159
r51b_2D        41		N51		0.097178		80.0000		22.1654		3.1557		43.8423
r52a_2D        41		N52		0.224271		90.0000		35.9168		2.5641		62.4419
r52b_2D        41		N52		0.124034		90.0000		26.4265		2.7588		46.9355
r53a_2D        41		N53		0.131682		75.0000		27.0465		4.5221		48.6872
r53b_2D        41		N53		0.113720		90.0000		22.1029		3.5705		51.4500
r54a_2D        41		N54		0.204044		90.0000		34.3157		3.1461		59.4610
r54b_2D        41		N54		0.043231		75.0000		15.3469		5.0573		28.1692
r54c_2D        41		N54		0.011414		75.0000		8.0760		4.0120		14.1337
r55a_2D        41		N55		0.203021		75.0000		34.8701		4.1216		58.2221
r55b_2D        41		N55		0.109441		75.0000		22.9736		3.2843		47.6380
r56a_2D        41		N56		0.081292		75.0000		19.5665		3.7547		41.5467
r56b_2D        41		N56		0.081558		75.0000		20.3671		1.6267		40.0440
r57a_2D        41		N57		0.087929		75.0000		20.2766		4.1648		43.3645
r57b_2D        41		N57		0.210534		90.0000		34.5932		3.1242		60.8599
r58a_2D        41		N58		0.136626		75.0000		28.7872		3.9145		47.4606
r58b_2D        41		N58		0.104261		90.0000		19.5462		2.6186		53.3408
r59a_2D        41		N59		0.034929		90.0000		13.6546		2.4429		25.5803
r59b_2D        41		N59		0.015741		90.0000		9.2595		2.2912		17.0000
r59c_2D        41		N59		0.163611		90.0000		29.0339		2.5003		56.3519
r60a_2D        41		N60		0.078487		90.0000		19.2259		3.5558		40.8235
r60b_2D        41		N60		0.082662		90.0000		19.5330		2.6927		42.3191
r61a_2D        41		N61		0.138495		90.0000		25.6443		3.1353		54.0062
r61b_2D        41		N61		0.253739		90.0000		36.3188		2.8768		69.8643
r62a_2D        41		N62		0.123339		90.0000		22.6653		2.9805		54.4173
r62b_2D        41		N62		0.129124		90.0000		24.1970		3.1544		53.3635
r63a_2D        41		N63		0.088582		90.0000		19.9999		3.3464		44.2914
r63b_2D        41		N63		0.189369		90.0000		32.7721		5.2735		57.7837
r64a_2D        41		N64		0.215310		90.0000		33.6096		3.8989		64.0621
r64b_2D        41		N64		0.100293		90.0000		19.3862		3.6130		51.7344
r65a_2D        41		N65		0.157639		90.0000		29.6470		3.0733		53.1721
r66a_2D        41		N66		0.014339		90.0000		7.6536		3.6876		18.7350
r67a_2D        41		N67		0.208674		90.0000		34.1426		4.2418		61.1183
r67b_2D        41		N67		0.015298		90.0000		7.2934		6.3939		20.9747
r68a_2D        41		N68		0.275400		90.0000		39.3767		2.8910		69.9399
r68b_2D        41		N68		0.036130		90.0000		14.4237		7.0247		25.0491
r68c_2D        41		N68		0.059165		90.0000		15.9204		4.9633		37.1631
r69a_2D        41		N69		0.153919		90.0000		29.7053		3.5322		51.8154
r69b_2D        41		N69		0.172523		90.0000		30.1959		4.9045		57.1346
r70a_2D        41		N70		0.105306		80.0000		22.7811		3.1814		46.2253
r70b_2D        41		N70		0.037524		90.0000		13.2334		2.5813		28.3552
r71a_2D        41		N71		0.122578		90.0000		26.4410		3.6320		46.3592
r71b_2D        41		N71		0.160802		90.0000		28.2679		4.0397		56.8851
r72a_2D        41		N72		0.119813		90.0000		23.6435		2.9021		50.6749
r72b_2D        41		N72		0.044339		90.0000		14.8540		4.2176		29.8497
r73a_2D        41		N73		0.187864		90.0000		31.0608		2.0484		60.4826
r73b_2D        41		N73		0.245835		90.0000		38.2488		3.4608		64.2726
r74a_2D        41		N74		0.078933		90.0000		19.5829		4.0629		40.3068
r74b_2D        41		N74		0.079459		90.0000		20.3121		2.6785		39.1189
r75a_2D        41		N75		0.019347		90.0000		10.2158		5.9100		18.9384
r75b_2D        41		N75		0.020457		90.0000		10.5168		4.3000		19.4514
r76a_2D        41		N76		0.092434		90.0000		20.4632		4.6641		45.1707
r77a_2D        41		N77		0.209409		90.0000		34.6036		6.4301		60.5165
r78a_2D        41		N78		0.140814		90.0000		25.3427		4.2949		55.5640
r79a_2D        41		N79		0.171789		90.0000		28.7424		3.7209		59.7687
r79b_2D        41		N79		0.206174		90.0000		33.7383		2.3742		61.1098
r80a_2D        41		N80		0.188375		90.0000		31.7788		4.1746		59.2771
r80b_2D        41		N80		0.244163		90.0000		37.1008		2.1865		65.8108
r81a_2D        41		N81		0.060598		90.0000		16.5787		3.7308		36.5516
r81b_2D        41		N81		0.105743		90.0000		23.5666		3.3093		44.8697
r82a_2D        41		N82		0.160718		90.0000		28.0456		3.9137		57.3058
r82b_2D        41		N82		0.327806		90.0000		43.6280		5.0116		75.1365
r83a_2D        41		N83		0.130441		90.0000		24.5647		4.8130		53.1010
r83b_2D        41		N83		0.130915		90.0000		26.3130		2.3071		49.7531
r84a_2D        41		N84		0.212802		90.0000		34.6745		4.0772		61.3713
r84b_2D        41		N84		0.174333		90.0000		32.3041		2.5212		53.9663
r85a_2D        41		N85		0.060731		90.0000		18.4654		3.5305		32.8890
r85b_2D        41		N85		0.070562		90.0000		17.8660		4.1823		39.4954
r86a_2D        41		N86		0.083969		90.0000		19.6079		3.6912		42.8241
r86b_2D        41		N86		0.000919		90.0000		1.7243		3.1185		5.3278
r87a_2D        41		N87		0.064447		90.0000		17.5431		3.0588		36.7362
r87b_2D        41		N87		0.031573		90.0000		11.7633		3.4315		26.8405
r88a_2D        41		N88		0.010681		90.0000		7.7462		4.2877		13.7888
r88b_2D        41		N88		0.112806		90.0000		24.9024		3.7226		45.2990
r89a_2D        41		N89		0.042393		90.0000		12.7484		4.0706		33.2535
r89b_2D        41		N89		0.085900		90.0000		21.4065		3.6803		40.1281
r90a_2D        41		N90		0.165997		90.0000		29.6433		2.2067		55.9981
r91a_2D        41		N91		0.169994		90.0000		30.8083		2.0506		55.1779
r92a_2D        41		N92		0.125313		90.0000		25.1541		2.4546		49.8181
r93a_2D        41		N93		0.117714		90.0000		24.6245		3.4073		47.8036
r93b_2D        41		N93		0.005018		90.0000		4.0291		2.7971		12.4537
r94a_2D        41		N94		0.040683		90.0000		14.6925		3.4015		27.6894
r95a_2D        41		N95		0.060207		90.0000		18.7114		4.0171		32.1765
r96a_2D        41		N96		0.140775		90.0000		27.8478		2.6877		50.5516
r96b_2D        41		N96		0.017996		90.0000		8.6541		3.9853		20.7948
r97a_2D        41		N97		0.218824		90.0000		34.9620		2.6291		62.5889
r97b_2D        41		N97		0.121696		90.0000		22.2005		3.3260		54.8166
r98a_2D        41		N98		0.215478		90.0000		34.3050		2.5144		62.8125
r98b_2D        41		N98		0.166818		90.0000		29.5877		3.6025		56.3807
r99a_2D        41		N99		0.166816		90.0000		30.3832		3.0724		54.9042
s100a_2D        41		N100		0.101312		100.0000		22.7303		4.7142		44.5713
s101a_2D        41		N101		0.100273		100.0000		18.2065		3.2714		55.0757
s102a_2D        41		N102		0.111772		100.0000		23.7275		4.0218		47.1067
s104a_2D        41		N104		0.096507		100.0000		22.4074		3.4458		43.0692
s105a_2D        41		N105		0.100136		100.0000		21.9176		3.8845		45.6873
s106a_2D        41		N106		0.049644		100.0000		14.1643		2.5058		35.0484
s107a_2D        41		N107		0.093299		100.0000		19.9419		2.8025		46.7856
s108a_2D        41		N108		0.049910		100.0000		14.1587		3.2544		35.2503
s109a_2D        41		N109		0.052557		100.0000		14.3686		2.9873		36.5776
s110a_2D        41		N110		0.053165		100.0000		13.8174		3.2408		38.4765
s111a_2D        41		N111		0.156239		100.0000		27.4169		3.9302		56.9865
s112a_2D        41		N112		0.074259		100.0000		18.5072		3.2371		40.1241
s113a_2D        41		N113		0.080537		100.0000		19.4327		3.4587		41.4440
s114a_2D        41		N114		0.074276		100.0000		19.0129		3.3425		39.0660
s115a_2D        41		N115		0.071930		100.0000		19.0224		3.2643		37.8131
s116a_2D        41		N116		0.070804		100.0000		18.7022		3.9123		37.8587
s117a_2D        41		N117		0.073003		100.0000		18.1327		3.6557		40.2603
s118a_2D        41		N118		0.072309		100.0000		17.8653		3.5757		40.4747
s32a_2D        41		N32		0.079809		100.0000		19.9697		5.7678		39.9651
s119a_2D        41		N119		0.068798		100.0000		17.5243		3.4997		39.2586
s120a_2D        41		N120		0.074592		100.0000		18.7841		3.7721		39.7100
s121a_2D        41		N121		0.134080		100.0000		22.5999		3.3476		59.3276
s122a_2D        41		N122		0.112484		100.0000		20.4834		4.4548		54.9146
s123a_2D        41		N123		0.125854		100.0000		26.5161		2.3296		47.4634
s124a_2D        41		N124		0.074034		100.0000		18.4197		2.6108		40.1929
s125a_2D        41		N125		0.074219		100.0000		18.3613		2.1854		40.4212
s126a_2D        41		N126		0.095337		100.0000		22.4900		3.8356		42.3908
s127a_2D        41		N127		0.095513		100.0000		22.4134		1.8472		42.6144
s128a_2D        41		N128		0.095213		100.0000		22.3799		2.4744		42.5438
s129a_2D        41		N129		0.095035		100.0000		22.3714		2.8128		42.4805
s130a_2D        41		N130		0.095739		100.0000		22.4538		3.1537		42.6380
s131a_2D        41		N131		0.101044		100.0000		22.8819		2.0623		44.1590
s132a_2D        41		N132		0.109403		100.0000		23.4252		2.9408		46.7031
s233a_2D        41		N233		0.053154		100.0000		12.2525		2.5587		43.3823
s234a_2D        41		N234		0.062430		100.0000		17.4549		2.1711		35.7664
s29a_2D        41		N29		0.122165		100.0000		20.7416		2.4208		58.8987
s30a_2D        41		N30		0.111502		100.0000		22.0664		4.6304		50.5300
s31a_2D        41		N31		0.094656		100.0000		20.4631		6.2952		46.2570
s33a_2D        41		N33		0.082039		100.0000		19.5798		1.7828		41.8999
s34a_2D        41		N34		0.109694		100.0000		24.3174		2.0264		45.1095
s35a_2D        41		N35		0.095457		100.0000		20.2482		3.8153		47.1437
s36a_2D        41		N36		0.083576		100.0000		19.6231		2.8920		42.5904
s37a_2D        41		N37		0.092542		100.0000		20.6800		2.8035		44.7493
s38a_2D        41		N38		0.079096		100.0000		19.7358		4.1686		40.0772
s39a_2D        41		N39		0.098826		100.0000		20.8245		3.7611		47.4568
s40a_2D        41		N40		0.121320		100.0000		23.1293		3.3636		52.4530
s41a_2D        41		N41		0.082145		100.0000		19.9265		4.0414		41.2240
s42a_2D        41		N42		0.078688		100.0000		19.4949		4.5387		40.3633
s43a_2D        41		N43		0.090652		100.0000		22.0058		3.0405		41.1945
s44a_2D        41		N44		0.065650		100.0000		17.8486		2.4806		36.7819
s45a_2D        41		N45		0.085406		100.0000		18.8253		2.9355		45.3678
s46a_2D        41		N46		0.077255		100.0000		19.8564		2.7793		38.9067
s47a_2D        41		N47		0.075378		100.0000		19.6309		10.9858		38.3977
s48a_2D        41		N48		0.080133		100.0000		20.0262		7.4697		40.0139
s49a_2D        41		N49		0.088600		100.0000		20.0123		2.2078		44.2728
s50a_2D        41		N50		0.093040		100.0000		21.0437		3.9444		44.2128
s51a_2D        41		N51		0.087467		100.0000		20.3422		2.8583		42.9980
s52a_2D        41		N52		0.088486		100.0000		20.4693		2.7543		43.2287
s53a_2D        41		N53		0.050765		100.0000		14.0198		3.3947		36.2093
s54a_2D        41		N54		0.069974		100.0000		15.6052		2.7919		44.8406
s55a_2D        41		N55		0.056175		100.0000		14.6735		1.6567		38.2829
s56a_2D        41		N56		0.044666		100.0000		14.0555		1.6322		31.7786
s57a_2D        41		N57		0.050861		100.0000		12.6064		2.6536		40.3451
s58a_2D        41		N58		0.051591		100.0000		11.8378		2.0503		43.5812
s59a_2D        41		N59		0.071249		100.0000		15.2401		1.7024		46.7511
s60a_2D        41		N60		0.052315		100.0000		14.1724		1.6820		36.9136
s61a_2D        41		N61		0.054719		100.0000		14.4435		3.6716		37.8851
s62a_2D        41		N62		0.049377		100.0000		13.3550		1.9808		36.9727
s63a_2D        41		N63		0.069720		100.0000		18.9726		3.0731		36.7478
s64a_2D        41		N64		0.074083		100.0000		17.9487		2.9101		41.2749
s65a_2D        41		N65		0.078892		100.0000		19.8145		4.5240		39.8155
s66a_2D        41		N66		0.076579		100.0000		19.7112		4.6300		38.8507
s67a_2D        41		N67		0.058478		100.0000		14.3539		7.5413		40.7401
s68a_2D        41		N68		0.109168		100.0000		16.7996		3.3649		64.9824
s69a_2D        41		N69		0.062342		100.0000		14.9655		5.6905		41.6569
s70a_2D        41		N70		0.057865		100.0000		14.6078		2.0297		39.6123
s71a_2D        41		N71		0.056928		100.0000		14.7600		3.2491		38.5694
s72a_2D        41		N72		0.049960		100.0000		12.1415		3.1134		41.1484
s73a_2D        41		N73		0.063781		100.0000		14.6987		3.8911		43.3923
s74a_2D        41		N74		0.051947		100.0000		13.0057		4.8301		39.9415
s75a_2D        41		N75		0.117744		100.0000		23.7489		3.8641		49.5786
s76a_2D        41		N76		0.075516		100.0000		19.3707		7.1720		38.9847
s77a_2D        41		N77		0.076452		100.0000		19.2905		6.0173		39.6322
s78a_2D        41		N78		0.095715		100.0000		22.3695		4.4562		42.7883
s79a_2D        41		N79		0.055656		100.0000		14.5587		5.1713		38.2286
s80a_2D        41		N80		0.059391		100.0000		14.8619		3.1237		39.9621
s81a_2D        41		N81		0.048137		100.0000		13.4539		1.9490		35.7795
s82a_2D        41		N82		0.075702		100.0000		15.2256		3.7468		49.7201
s83a_2D        41		N83		0.049965		100.0000		14.2749		5.7423		35.0017
s84a_2D        41		N84		0.050894		100.0000		14.3584		4.5737		35.4452
s85a_2D        41		N85		0.049801		100.0000		11.8588		3.6040		41.9951
s86a_2D        41		N86		0.074568		100.0000		18.9574		3.4380		39.3343
s87a_2D        41		N87		0.103983		100.0000		23.7544		3.4918		43.7744
s88a_2D        41		N88		0.122166		100.0000		24.9817		1.9582		48.9021
s89a_2D        41		N89		0.096722		100.0000		22.5812		3.8049		42.8329
s90a_2D        41		N90		0.095065		100.0000		22.2988		1.9538		42.6324
s91a_2D        41		N91		0.097279		100.0000		20.9820		2.0001		46.3631
s92a_2D        41		N92		0.222729		100.0000		30.6781		2.2594		72.6018
s93a_2D        41		N93		0.077236		100.0000		19.7450		1.6177		39.1168
s94a_2D        41		N94		0.369164		100.0000		45.0009		2.6103		82.0348
s95a_2D        41		N95		0.147210		100.0000		26.7020		3.7366		55.1306
s96a_2D        41		N96		0.106628		100.0000		24.0223		3.8093		44.3871
s97a_2D        41		N97		0.110205		100.0000		21.3593		5.1867		51.5957
s98a_2D        41		N98		0.096806		100.0000		20.9197		3.6988		46.2750
s99a_2D        41		N99		0.085723		100.0000		21.5798		1.5224		39.7239

[SUBAREAS]
r100a_2D        0.0130       0.0250       3.7417       0.0000       0.0000       OUTLET       100.0000
r101a_2D        0.0130       0.0250       3.6909       0.0000       0.0000       OUTLET       100.0000
r101b_2D        0.0130       0.0250       3.9791       0.0000       0.0000       OUTLET       100.0000
r102a_2D        0.0130       0.0250       3.5920       0.0000       0.0000       OUTLET       100.0000
r102b_2D        0.0130       0.0250       4.6494       0.0000       0.0000       OUTLET       100.0000
r104a_2D        0.0130       0.0250       4.4203       0.0000       0.0000       OUTLET       100.0000
r104b_2D        0.0130       0.0250       3.7360       0.0000       0.0000       OUTLET       100.0000
r105a_2D        0.0130       0.0250       4.0295       0.0000       0.0000       OUTLET       100.0000
r105b_2D        0.0130       0.0250       3.7940       0.0000       0.0000       OUTLET       100.0000
r106a_2D        0.0130       0.0250       4.9415       0.0000       0.0000       OUTLET       100.0000
r106b_2D        0.0130       0.0250       3.8196       0.0000       0.0000       OUTLET       100.0000
r107a_2D        0.0130       0.0250       3.6277       0.0000       0.0000       OUTLET       100.0000
r107b_2D        0.0130       0.0250       4.1095       0.0000       0.0000       OUTLET       100.0000
r108a_2D        0.0130       0.0250       3.7325       0.0000       0.0000       OUTLET       100.0000
r108b_2D        0.0130       0.0250       4.0547       0.0000       0.0000       OUTLET       100.0000
r109a_2D        0.0130       0.0250       3.8611       0.0000       0.0000       OUTLET       100.0000
r109b_2D        0.0130       0.0250       3.5228       0.0000       0.0000       OUTLET       100.0000
r110a_2D        0.0130       0.0250       3.7062       0.0000       0.0000       OUTLET       100.0000
r110b_2D        0.0130       0.0250       3.8029       0.0000       0.0000       OUTLET       100.0000
r111a_2D        0.0130       0.0250       4.6489       0.0000       0.0000       OUTLET       100.0000
r112a_2D        0.0130       0.0250       4.3410       0.0000       0.0000       OUTLET       100.0000
r113a_2D        0.0130       0.0250       4.8388       0.0000       0.0000       OUTLET       100.0000
r113b_2D        0.0130       0.0250       4.9588       0.0000       0.0000       OUTLET       100.0000
r114a_2D        0.0130       0.0250       3.9477       0.0000       0.0000       OUTLET       100.0000
r115a_2D        0.0130       0.0250       3.8864       0.0000       0.0000       OUTLET       100.0000
r116a_2D        0.0130       0.0250       4.0949       0.0000       0.0000       OUTLET       100.0000
r117a_2D        0.0130       0.0250       4.3905       0.0000       0.0000       OUTLET       100.0000
r118a_2D        0.0130       0.0250       3.5034       0.0000       0.0000       OUTLET       100.0000
r119a_2D        0.0130       0.0250       3.2014       0.0000       0.0000       OUTLET       100.0000
r120a_2D        0.0130       0.0250       3.9360       0.0000       0.0000       OUTLET       100.0000
r121a_2D        0.0130       0.0250       5.0162       0.0000       0.0000       OUTLET       100.0000
r122a_2D        0.0130       0.0250       4.0423       0.0000       0.0000       OUTLET       100.0000
r123a_2D        0.0130       0.0250       4.9155       0.0000       0.0000       OUTLET       100.0000
r124a_2D        0.0130       0.0250       3.8713       0.0000       0.0000       OUTLET       100.0000
r125a_2D        0.0130       0.0250       4.5806       0.0000       0.0000       OUTLET       100.0000
r126a_2D        0.0130       0.0250       3.3338       0.0000       0.0000       OUTLET       100.0000
r127a_2D        0.0130       0.0250       3.4956       0.0000       0.0000       OUTLET       100.0000
r128a_2D        0.0130       0.0250       3.6475       0.0000       0.0000       OUTLET       100.0000
r129a_2D        0.0130       0.0250       3.8034       0.0000       0.0000       OUTLET       100.0000
r130a_2D        0.0130       0.0250       3.9094       0.0000       0.0000       OUTLET       100.0000
r131a_2D        0.0130       0.0250       3.9088       0.0000       0.0000       OUTLET       100.0000
r99b_2D        0.0130       0.0250       3.8516       0.0000       0.0000       OUTLET       100.0000
r132a_2D        0.0130       0.0250       4.2358       0.0000       0.0000       OUTLET       100.0000
r233a_2D        0.0130       0.0250       4.0554       0.0000       0.0000       OUTLET       100.0000
r233b_2D        0.0130       0.0250       3.8426       0.0000       0.0000       OUTLET       100.0000
r29a_2D        0.0130       0.0250       4.6251       0.0000       0.0000       OUTLET       100.0000
r30a_2D        0.0130       0.0250       4.7301       0.0000       0.0000       OUTLET       100.0000
r31a_2D        0.0130       0.0250       3.8561       0.0000       0.0000       OUTLET       100.0000
r31b_2D        0.0130       0.0250       3.8975       0.0000       0.0000       OUTLET       100.0000
r32a_2D        0.0130       0.0250       4.6107       0.0000       0.0000       OUTLET       100.0000
r33a_2D        0.0130       0.0250       4.6169       0.0000       0.0000       OUTLET       100.0000
r34a_2D        0.0130       0.0250       5.0756       0.0000       0.0000       OUTLET       100.0000
r34b_2D        0.0130       0.0250       4.3933       0.0000       0.0000       OUTLET       100.0000
r35a_2D        0.0130       0.0250       4.1062       0.0000       0.0000       OUTLET       100.0000
r35b_2D        0.0130       0.0250       4.7719       0.0000       0.0000       OUTLET       100.0000
r35c_2D        0.0130       0.0250       3.6497       0.0000       0.0000       OUTLET       100.0000
r36a_2D        0.0130       0.0250       4.2045       0.0000       0.0000       OUTLET       100.0000
r36b_2D        0.0130       0.0250       4.5480       0.0000       0.0000       OUTLET       100.0000
r36c_2D        0.0130       0.0250       3.1727       0.0000       0.0000       OUTLET       100.0000
r37a_2D        0.0130       0.0250       3.4583       0.0000       0.0000       OUTLET       100.0000
r37b_2D        0.0130       0.0250       3.7549       0.0000       0.0000       OUTLET       100.0000
r37c_2D        0.0130       0.0250       3.9283       0.0000       0.0000       OUTLET       100.0000
r38a_2D        0.0130       0.0250       4.2872       0.0000       0.0000       OUTLET       100.0000
r38b_2D        0.0130       0.0250       3.8503       0.0000       0.0000       OUTLET       100.0000
r39a_2D        0.0130       0.0250       3.6660       0.0000       0.0000       OUTLET       100.0000
r39b_2D        0.0130       0.0250       3.2714       0.0000       0.0000       OUTLET       100.0000
r40a_2D        0.0130       0.0250       4.4451       0.0000       0.0000       OUTLET       100.0000
r40b_2D        0.0130       0.0250       3.9899       0.0000       0.0000       OUTLET       100.0000
r41a_2D        0.0130       0.0250       6.2500       0.0000       0.0000       OUTLET       100.0000
r41b_2D        0.0130       0.0250       3.4836       0.0000       0.0000       OUTLET       100.0000
r42a_2D        0.0130       0.0250       3.2996       0.0000       0.0000       OUTLET       100.0000
r42b_2D        0.0130       0.0250       3.3756       0.0000       0.0000       OUTLET       100.0000
r43a_2D        0.0130       0.0250       4.4921       0.0000       0.0000       OUTLET       100.0000
r44a_2D        0.0130       0.0250       5.0235       0.0000       0.0000       OUTLET       100.0000
r45a_2D        0.0130       0.0250       4.4789       0.0000       0.0000       OUTLET       100.0000
r45b_2D        0.0130       0.0250       3.8019       0.0000       0.0000       OUTLET       100.0000
r46a_2D        0.0130       0.0250       5.0414       0.0000       0.0000       OUTLET       100.0000
r47a_2D        0.0130       0.0250       4.6343       0.0000       0.0000       OUTLET       100.0000
r48a_2D        0.0130       0.0250       3.9845       0.0000       0.0000       OUTLET       100.0000
r49a_2D        0.0130       0.0250       4.4474       0.0000       0.0000       OUTLET       100.0000
r50a_2D        0.0130       0.0250       3.8856       0.0000       0.0000       OUTLET       100.0000
r51a_2D        0.0130       0.0250       4.3282       0.0000       0.0000       OUTLET       100.0000
r51b_2D        0.0130       0.0250       4.1851       0.0000       0.0000       OUTLET       100.0000
r52a_2D        0.0130       0.0250       4.6333       0.0000       0.0000       OUTLET       100.0000
r52b_2D        0.0130       0.0250       4.4700       0.0000       0.0000       OUTLET       100.0000
r53a_2D        0.0130       0.0250       3.5087       0.0000       0.0000       OUTLET       100.0000
r53b_2D        0.0130       0.0250       3.9394       0.0000       0.0000       OUTLET       100.0000
r54a_2D        0.0130       0.0250       4.1914       0.0000       0.0000       OUTLET       100.0000
r54b_2D        0.0130       0.0250       3.3216       0.0000       0.0000       OUTLET       100.0000
r54c_2D        0.0130       0.0250       3.7206       0.0000       0.0000       OUTLET       100.0000
r55a_2D        0.0130       0.0250       3.6718       0.0000       0.0000       OUTLET       100.0000
r55b_2D        0.0130       0.0250       4.1040       0.0000       0.0000       OUTLET       100.0000
r56a_2D        0.0130       0.0250       3.8435       0.0000       0.0000       OUTLET       100.0000
r56b_2D        0.0130       0.0250       5.7906       0.0000       0.0000       OUTLET       100.0000
r57a_2D        0.0130       0.0250       3.6531       0.0000       0.0000       OUTLET       100.0000