[TITLE]
;Created by Giswater
;Giswater, the open water management tool.
Urban drainage 1D/2D coupled model demo project April 2015      


[OPTIONS]
;;Parameter  		 Value
;;------------------ --------------------
FLOW_UNITS              CMS
INFILTRATION            CURVE_NUMBER
FLOW_ROUTING            DYNWAVE
LINK_OFFSETS            DEPTH
FORCE_MAIN_EQUATION     H-W
IGNORE_RAINFALL         NO
IGNORE_SNOWMELT         NO
IGNORE_GROUNDWATER      NO
IGNORE_ROUTING          NO
IGNORE_QUALITY          NO
SKIP_STEADY_STATE       NO
START_DATE              01/01/2001
START_TIME              00:00:00
END_DATE                01/01/2001
END_TIME                05:00:00
REPORT_START_DATE       01/01/2001
REPORT_START_TIME       00:00:00
SWEEP_START             01/01
SWEEP_END               12/31
DRY_DAYS                10
REPORT_STEP             00:15:00
WET_STEP                00:05:00
DRY_STEP                01:00:00
ROUTING_STEP            00:00:02
INERTIAL_DAMPING        NONE
NORMAL_FLOW_LIMITED     BOTH
MIN_SURFAREA            0.000000
MIN_SLOPE               0.000000
ALLOW_PONDING           YES
MAX_TRIALS              0
HEAD_TOLERANCE          0.0000
SYS_FLOW_TOL            5
LAT_FLOW_TOL            5


[REPORT]
;;Parameter  		 Value
;;------------------ --------------------
INPUT                   YES
CONTINUITY              YES
FLOWSTATS               YES
CONTROLS                YES
SUBCATCHMENTS           ALL
NODES                   ALL
LINKS                   ALL


[FILES]
;;Action   Parameter  Fname
;;-------- ---------- ------------------------------
USE RAINFALL ciaomamma
USE RUNOFF ciaopapa

[EVAPORATION]
;;Other_Val
;;----------------------------


[RAINGAGES]
;;RG_ID          Form_Type    Intvl        SCF          Other_Val
;;-------------- ------------ ------------ ------------ ------------------------------
41               VOLUME       0:05         1.0000       TIMESERIES         T5-5m            


[TEMPERATURE]
;;Other_Val
;;----------------------------


[SUBCATCHMENTS]
;;SUBC_ID        RG_ID            NOD_ID           Area             Imperv     Width            Slope            Clength
;;-------------- ---------------- ---------------- ---------------- ---------- ---------------- ---------------- ---------------
r100a_2D         41               N100             0.129663         90.0000      26.5216          3.9660           48.8896                           
r101a_2D         41               N101             0.125028         90.0000      23.7876          4.0782           52.5601                           
r101b_2D         41               N101             0.175173         90.0000      29.8357          3.4981           58.7127                           
r102a_2D         41               N102             0.182694         90.0000      32.0927          4.3108           56.9270                           
r102b_2D         41               N102             0.167321         90.0000      28.9766          2.5460           57.7435                           
r104a_2D         41               N104             0.059246         80.0000      17.6181          2.8225           33.6279                           
r104b_2D         41               N104             0.128539         90.0000      25.2845          3.9785           50.8373                           
r105a_2D         41               N105             0.184893         90.0000      31.1105          3.4094           59.4312                           
r105b_2D         41               N105             0.022750         80.0000      10.5831          3.8553           21.4963                           
r106a_2D         41               N106             0.134563         90.0000      26.0181          2.2483           51.7190                           
r106b_2D         41               N106             0.145753         90.0000      26.6777          3.8027           54.6349                           
r107a_2D         41               N107             0.154083         90.0000      22.2124          4.2245           69.3681                           
r107b_2D         41               N107             0.228191         90.0000      34.5686          3.2754           66.0109                           
r108a_2D         41               N108             0.250491         90.0000      37.5892          3.9861           66.6391                           
r108b_2D         41               N108             0.208254         90.0000      34.4888          3.3663           60.3832                           
r109a_2D         41               N109             0.210688         90.0000      34.2254          3.7198           61.5589                           
r109b_2D         41               N109             0.217473         90.0000      35.3548          4.4852           61.5116                           
r110a_2D         41               N110             0.097584         90.0000      22.0971          4.0439           44.1612                           
r110b_2D         41               N110             0.331987         90.0000      44.1302          3.8368           75.2290                           
r111a_2D         41               N111             0.148639         75.0000      27.8208          2.5465           53.4272                           
r112a_2D         41               N112             0.117490         75.0000      23.2522          2.9287           50.5284                           
r113a_2D         41               N113             0.002146         90.0000      2.8164           2.3467           7.6191                            
r113b_2D         41               N113             0.010913         75.0000      6.8779           2.2323           15.8673                           
r114a_2D         41               N114             0.124629         75.0000      26.5933          3.5552           46.8648                           
r115a_2D         41               N115             0.059546         90.0000      15.5625          3.6705           38.2625                           
r116a_2D         41               N116             0.041368         90.0000      12.9313          3.2993           31.9907                           
r117a_2D         41               N117             0.194891         90.0000      31.8959          2.8618           61.1022                           
r118a_2D         41               N118             0.266823         90.0000      38.7843          4.5361           68.7967                           
r119a_2D         41               N119             0.215737         90.0000      33.9850          5.4525           63.4801                           
r120a_2D         41               N120             0.041025         90.0000      13.9306          3.5768           29.4497                           
r121a_2D         41               N121             0.073400         80.0000      19.8811          2.1805           36.9193                           
r122a_2D         41               N122             0.078442         80.0000      17.2553          3.3874           45.4597                           
r123a_2D         41               N123             0.008943         90.0000      6.7084           2.2726           13.3304                           
r124a_2D         41               N124             0.163317         90.0000      29.6309          3.6999           55.1171                           
r125a_2D         41               N125             0.105904         90.0000      22.4122          2.6246           47.2527                           
r126a_2D         41               N126             0.214400         90.0000      34.7094          5.0194           61.7701                           
r127a_2D         41               N127             0.213167         90.0000      34.1426          4.5568           62.4343                           
r128a_2D         41               N128             0.208979         90.0000      34.5623          4.1780           60.4644                           
r129a_2D         41               N129             0.210811         90.0000      34.7033          3.8359           60.7467                           
r130a_2D         41               N130             0.204357         90.0000      34.0803          3.6266           59.9632                           
r131a_2D         41               N131             0.223545         90.0000      36.0462          3.6277           62.0162                           
r99b_2D          41               N99              0.049370         90.0000      13.7362          3.7386           35.9419                           
r132a_2D         41               N132             0.144698         90.0000      26.5015          3.0791           54.5998                           
r233a_2D         41               N233             0.054564         90.0000      16.8222          3.3652           32.4357                           
r233b_2D         41               N233             0.080347         90.0000      18.9048          3.7564           42.5010                           
r29a_2D          41               N29              0.152217         75.0000      28.2955          2.5734           53.7955                           
r30a_2D          41               N30              0.184562         75.0000      31.6613          2.4581           58.2927                           
r31a_2D          41               N31              0.010443         90.0000      7.3042           3.7296           14.2969                           
r31b_2D          41               N31              0.016742         75.0000      9.7511           3.6492           17.1694                           
r32a_2D          41               N32              0.099990         90.0000      20.9949          2.5898           47.6260                           
r33a_2D          41               N33              0.138549         90.0000      25.8675          2.5827           53.5609                           
r34a_2D          41               N34              0.006814         80.0000      6.0939           2.1287           11.1814                           
r34b_2D          41               N34              0.015347         90.0000      9.0895           2.8581           16.8849                           
r35a_2D          41               N35              0.122170         90.0000      23.2833          3.2808           52.4709                           
r35b_2D          41               N35              0.016686         90.0000      9.6357           2.4144           17.3166                           
r35c_2D          41               N35              0.012885         90.0000      8.6288           4.1727           14.9327                           
r36a_2D          41               N36              0.010943         90.0000      7.9471           3.1261           13.7698                           
r36b_2D          41               N36              0.010981         90.0000      7.9360           2.6631           13.8372                           
r36c_2D          41               N36              0.098303         90.0000      21.0846          5.5535           46.6229                           
r37a_2D          41               N37              0.250165         90.0000      36.7494          4.6576           68.0733                           
r37b_2D          41               N37              0.012688         90.0000      8.4893           3.9377           14.9464                           
r37c_2D          41               N37              0.008653         90.0000      6.5608           3.5911           13.1895                           
r38a_2D          41               N38              0.167648         90.0000      29.0231          3.0043           57.7638                           
r38b_2D          41               N38              0.101218         90.0000      23.1640          3.7411           43.6962                           
r39a_2D          41               N39              0.030359         90.0000      12.1828          4.1351           24.9197                           
r39b_2D          41               N39              0.060571         90.0000      18.0692          5.2170           33.5215                           
r40a_2D          41               N40              0.027118         80.0000      12.3175          2.7905           22.0156                           
r40b_2D          41               N40              0.072584         90.0000      19.8978          3.4788           36.4786                           
r41a_2D          41               N41              0.126085         80.0000      27.2329          1.3920           46.2986                           
r41b_2D          41               N41              0.242097         90.0000      37.2567          4.5888           64.9808                           
r42a_2D          41               N42              0.027756         80.0000      9.9207           5.1263           27.9779                           
r42b_2D          41               N42              0.199370         90.0000      33.3622          4.8936           59.7592                           
r43a_2D          41               N43              0.052801         90.0000      15.4760          2.7312           34.1177                           
r44a_2D          41               N44              0.103187         90.0000      22.3835          2.1740           46.0996                           
r45a_2D          41               N45              0.012914         90.0000      8.6843           2.7477           14.8703                           
r45b_2D          41               N45              0.021430         90.0000      10.9520          3.8389           19.5669                           
r46a_2D          41               N46              0.050654         80.0000      15.9209          2.1583           31.8160                           
r47a_2D          41               N47              0.017653         90.0000      7.8123           2.5629           22.5970                           
r48a_2D          41               N48              0.103377         90.0000      23.2025          3.4884           44.5541                           
r49a_2D          41               N49              0.160822         90.0000      28.9088          2.7875           55.6308                           
r50a_2D          41               N50              0.077571         90.0000      19.1194          3.6720           40.5717                           
r51a_2D          41               N51              0.179053         90.0000      31.2397          2.9465           57.3159                           
r51b_2D          41               N51              0.097178         80.0000      22.1654          3.1557           43.8423                           
r52a_2D          41               N52              0.224271         90.0000      35.9168          2.5641           62.4419                           
r52b_2D          41               N52              0.124034         90.0000      26.4265          2.7588           46.9355                           
r53a_2D          41               N53              0.131682         75.0000      27.0465          4.5221           48.6872                           
r53b_2D          41               N53              0.113720         90.0000      22.1029          3.5705           51.4500                           
r54a_2D          41               N54              0.204044         90.0000      34.3157          3.1461           59.4610                           
r54b_2D          41               N54              0.043231         75.0000      15.3469          5.0573           28.1692                           
r54c_2D          41               N54              0.011414         75.0000      8.0760           4.0120           14.1337                           
r55a_2D          41               N55              0.203021         75.0000      34.8701          4.1216           58.2221                           
r55b_2D          41               N55              0.109441         75.0000      22.9736          3.2843           47.6380                           
r56a_2D          41               N56              0.081292         75.0000      19.5665          3.7547           41.5467                           
r56b_2D          41               N56              0.081558         75.0000      20.3671          1.6267           40.0440                           
r57a_2D          41               N57              0.087929         75.0000      20.2766          4.1648           43.3645                           
r57b_2D          41               N57              0.210534         90.0000      34.5932          3.1242           60.8599                           
r58a_2D          41               N58              0.136626         75.0000      28.7872          3.9145           47.4606                           
r58b_2D          41               N58              0.104261         90.0000      19.5462          2.6186           53.3408                           
r59a_2D          41               N59              0.034929         90.0000      13.6546          2.4429           25.5803                           
r59b_2D          41               N59              0.015741         90.0000      9.2595           2.2912           17.0000                           
r59c_2D          41               N59              0.163611         90.0000      29.0339          2.5003           56.3519                           
r60a_2D          41               N60              0.078487         90.0000      19.2259          3.5558           40.8235                           
r60b_2D          41               N60              0.082662         90.0000      19.5330          2.6927           42.3191                           
r61a_2D          41               N61              0.138495         90.0000      25.6443          3.1353           54.0062                           
r61b_2D          41               N61              0.253739         90.0000      36.3188          2.8768           69.8643                           
r62a_2D          41               N62              0.123339         90.0000      22.6653          2.9805           54.4173                           
r62b_2D          41               N62              0.129124         90.0000      24.1970          3.1544           53.3635                           
r63a_2D          41               N63              0.088582         90.0000      19.9999          3.3464           44.2914                           
r63b_2D          41               N63              0.189369         90.0000      32.7721          5.2735           57.7837                           
r64a_2D          41               N64              0.215310         90.0000      33.6096          3.8989           64.0621                           
r64b_2D          41               N64              0.100293         90.0000      19.3862          3.6130           51.7344                           
r65a_2D          41               N65              0.157639         90.0000      29.6470          3.0733           53.1721                           
r66a_2D          41               N66              0.014339         90.0000      7.6536           3.6876           18.7350                           
r67a_2D          41               N67              0.208674         90.0000      34.1426          4.2418           61.1183                           
r67b_2D          41               N67              0.015298         90.0000      7.2934           6.3939           20.9747                           
r68a_2D          41               N68              0.275400         90.0000      39.3767          2.8910           69.9399                           
r68b_2D          41               N68              0.036130         90.0000      14.4237          7.0247           25.0491                           
r68c_2D          41               N68              0.059165         90.0000      15.9204          4.9633           37.1631                           
r69a_2D          41               N69              0.153919         90.0000      29.7053          3.5322           51.8154                           
r69b_2D          41               N69              0.172523         90.0000      30.1959          4.9045           57.1346                           
r70a_2D          41               N70              0.105306         80.0000      22.7811          3.1814           46.2253                           
r70b_2D          41               N70              0.037524         90.0000      13.2334          2.5813           28.3552                           
r71a_2D          41               N71              0.122578         90.0000      26.4410          3.6320           46.3592                           
r71b_2D          41               N71              0.160802         90.0000      28.2679          4.0397           56.8851                           
r72a_2D          41               N72              0.119813         90.0000      23.6435          2.9021           50.6749                           
r72b_2D          41               N72              0.044339         90.0000      14.8540          4.2176           29.8497                           
r73a_2D          41               N73              0.187864         90.0000      31.0608          2.0484           60.4826                           
r73b_2D          41               N73              0.245835         90.0000      38.2488          3.4608           64.2726                           
r74a_2D          41               N74              0.078933         90.0000      19.5829          4.0629           40.3068                           
r74b_2D          41               N74              0.079459         90.0000      20.3121          2.6785           39.1189                           
r75a_2D          41               N75              0.019347         90.0000      10.2158          5.9100           18.9384                           
r75b_2D          41               N75              0.020457         90.0000      10.5168          4.3000           19.4514                           
r76a_2D          41               N76              0.092434         90.0000      20.4632          4.6641           45.1707                           
r77a_2D          41               N77              0.209409         90.0000      34.6036          6.4301           60.5165                           
r78a_2D          41               N78              0.140814         90.0000      25.3427          4.2949           55.5640                           
r79a_2D          41               N79              0.171789         90.0000      28.7424          3.7209           59.7687                           
r79b_2D          41               N79              0.206174         90.0000      33.7383          2.3742           61.1098                           
r80a_2D          41               N80              0.188375         90.0000      31.7788          4.1746           59.2771                           
r80b_2D          41               N80              0.244163         90.0000      37.1008          2.1865           65.8108                           
r81a_2D          41               N81              0.060598         90.0000      16.5787          3.7308           36.5516                           
r81b_2D          41               N81              0.105743         90.0000      23.5666          3.3093           44.8697                           
r82a_2D          41               N82              0.160718         90.0000      28.0456          3.9137           57.3058                           
r82b_2D          41               N82              0.327806         90.0000      43.6280          5.0116           75.1365                           
r83a_2D          41               N83              0.130441         90.0000      24.5647          4.8130           53.1010                           
r83b_2D          41               N83              0.130915         90.0000      26.3130          2.3071           49.7531                           
r84a_2D          41               N84              0.212802         90.0000      34.6745          4.0772           61.3713                           
r84b_2D          41               N84              0.174333         90.0000      32.3041          2.5212           53.9663                           
r85a_2D          41               N85              0.060731         90.0000      18.4654          3.5305           32.8890                           
r85b_2D          41               N85              0.070562         90.0000      17.8660          4.1823           39.4954                           
r86a_2D          41               N86              0.083969         90.0000      19.6079          3.6912           42.8241                           
r86b_2D          41               N86              0.000919         90.0000      1.7243           3.1185           5.3278                            
r87a_2D          41               N87              0.064447         90.0000      17.5431          3.0588           36.7362                           
r87b_2D          41               N87              0.031573         90.0000      11.7633          3.4315           26.8405                           
r88a_2D          41               N88              0.010681         90.0000      7.7462           4.2877           13.7888                           
r88b_2D          41               N88              0.112806         90.0000      24.9024          3.7226           45.2990                           
r89a_2D          41               N89              0.042393         90.0000      12.7484          4.0706           33.2535                           
r89b_2D          41               N89              0.085900         90.0000      21.4065          3.6803           40.1281                           
r90a_2D          41               N90              0.165997         90.0000      29.6433          2.2067           55.9981                           
r91a_2D          41               N91              0.169994         90.0000      30.8083          2.0506           55.1779                           
r92a_2D          41               N92              0.125313         90.0000      25.1541          2.4546           49.8181                           
r93a_2D          41               N93              0.117714         90.0000      24.6245          3.4073           47.8036                           
r93b_2D          41               N93              0.005018         90.0000      4.0291           2.7971           12.4537                           
r94a_2D          41               N94              0.040683         90.0000      14.6925          3.4015           27.6894                           
r95a_2D          41               N95              0.060207         90.0000      18.7114          4.0171           32.1765                           
r96a_2D          41               N96              0.140775         90.0000      27.8478          2.6877           50.5516                           
r96b_2D          41               N96              0.017996         90.0000      8.6541           3.9853           20.7948                           
r97a_2D          41               N97              0.218824         90.0000      34.9620          2.6291           62.5889                           
r97b_2D          41               N97              0.121696         90.0000      22.2005          3.3260           54.8166                           
r98a_2D          41               N98              0.215478         90.0000      34.3050          2.5144           62.8125                           
r98b_2D          41               N98              0.166818         90.0000      29.5877          3.6025           56.3807                           
r99a_2D          41               N99              0.166816         90.0000      30.3832          3.0724           54.9042                           
s100a_2D         41               N100             0.101312         100.0000     22.7303          4.7142           44.5713                           
s101a_2D         41               N101             0.100273         100.0000     18.2065          3.2714           55.0757                           
s102a_2D         41               N102             0.111772         100.0000     23.7275          4.0218           47.1067                           
s104a_2D         41               N104             0.096507         100.0000     22.4074          3.4458           43.0692                           
s105a_2D         41               N105             0.100136         100.0000     21.9176          3.8845           45.6873                           
s106a_2D         41               N106             0.049644         100.0000     14.1643          2.5058           35.0484                           
s107a_2D         41               N107             0.093299         100.0000     19.9419          2.8025           46.7856                           
s108a_2D         41               N108             0.049910         100.0000     14.1587          3.2544           35.2503                           
s109a_2D         41               N109             0.052557         100.0000     14.3686          2.9873           36.5776                           
s110a_2D         41               N110             0.053165         100.0000     13.8174          3.2408           38.4765                           
s111a_2D         41               N111             0.156239         100.0000     27.4169          3.9302           56.9865                           
s112a_2D         41               N112             0.074259         100.0000     18.5072          3.2371           40.1241                           