[TITLE]

[OPTIONS]
ciao	1	2	3	4	
ciao1	5	6	7	8	
ciao2	4	9	10	11	12	
ciao3	13	14	15	16	
ciao4	17	18	19	20	

[REPORT]

[FILES]

[EVAPORATION]

[RAINGAGES]

[TEMPERATURE]

[SUBCATCHMENTS]

[SUBAREAS]

[INFILTRATION]

[AQUIFERS]

[GROUNDWATER]

[GWF]

[SNOWPACKS]

[JUNCTION]

[OUTFALLS]

[DIVIDERS]

[STORAGE]

[CONDUITS]

[PUMPS]

[ORIFICES]

[WEIRS]

[OUTLETS]

[XSECTIONS]

[LOSSES]

[TRANSECTS]

[CONTROLS]

[POLLUTANTS]

[LANDUSES]

[COVERAGES]

[BUILDUP]

[WASHOFF]

[TREATMENT]

[DWF]

[PATTERNS]

[INFLOWS]

[LOADINGS]

[RDII]

[HYDROGRAPHS]

[CURVES]

[TIMESERIES]

[LID_CONTROLS]

[LID_USAGE]

[ADJUSTMENTS]

[MAP]

[BACKDROP]

[SYMBOLS]

[LABELS]

[COORDINATES]

[VERTICES]

[Polygons]

